[Format]      =  4.0
[Frequency]   =  0
[Precision]   =  1e-008
[MinAngle]    =  30
[DoSmartMesh] =  1
[Depth]       =  2
[LengthUnits] =  centimeters
[ProblemType] =  planar
[Coordinates] =  cartesian
[ACSolver]    =  0
[PrevType]    =  0
[PrevSoln]    =  ""
[Comment]     =  "Add comments here."
[PointProps]   = 0
[BdryProps]   = 1
  <BeginBdry>
    <BdryName> = "contorno"
    <BdryType> = 0
    <A_0> = 0
    <A_1> = 0
    <A_2> = 0
    <Phi> = 0
    <c0> = 0
    <c0i> = 0
    <c1> = 0
    <c1i> = 0
    <Mu_ssd> = 0
    <Sigma_ssd> = 0
    <innerangle> = 0
    <outerangle> = 0
  <EndBdry>
[BlockProps]  = 3
  <BeginBlock>
    <BlockName> = "Air"
    <Mu_x> = 1
    <Mu_y> = 1
    <H_c> = 0
    <H_cAngle> = 0
    <J_re> = 0
    <J_im> = 0
    <Sigma> = 0
    <d_lam> = 0
    <Phi_h> = 0
    <Phi_hx> = 0
    <Phi_hy> = 0
    <LamType> = 0
    <LamFill> = 1
    <NStrands> = 0
    <WireD> = 0
    <BHPoints> = 0
  <EndBlock>
  <BeginBlock>
    <BlockName> = "16 AWG"
    <Mu_x> = 1
    <Mu_y> = 1
    <H_c> = 0
    <H_cAngle> = 0
    <J_re> = 0
    <J_im> = 0
    <Sigma> = 58
    <d_lam> = 0
    <Phi_h> = 0
    <Phi_hx> = 0
    <Phi_hy> = 0
    <LamType> = 3
    <LamFill> = 1
    <NStrands> = 1
    <WireD> = 1.2911827701741401
    <BHPoints> = 0
  <EndBlock>
  <BeginBlock>
    <BlockName> = "ferro"
    <Mu_x> = 1
    <Mu_y> = 1
    <H_c> = 0
    <H_cAngle> = 0
    <J_re> = 0
    <J_im> = 0
    <Sigma> = 0
    <d_lam> = 0
    <Phi_h> = 0
    <Phi_hx> = 0
    <Phi_hy> = 0
    <LamType> = 0
    <LamFill> = 1
    <NStrands> = 0
    <WireD> = 0
    <BHPoints> = 12
      0	0
      0.050000000000000003	100
      0.17000000000000001	200
      0.34999999999999998	300
      0.5	400
      0.65000000000000002	500
      0.77000000000000002	600
      0.85999999999999999	700
      0.94999999999999996	800
      1	900
      1.0700000000000001	1000
      1.3500000000000001	2000
  <EndBlock>
[CircuitProps]  = 1
  <BeginCircuit>
    <CircuitName> = "bobina"
    <TotalAmps_re> = 20
    <TotalAmps_im> = 0
    <CircuitType> = 1
  <EndCircuit>
[NumPoints] = 28
5.0199999999999996	4	0	0
13.02	4	0	0
7.0199999999999996	6	0	0
11.02	6	0	0
5.0199999999999996	8	0	0
7.0199999999999996	8	0	0
11.02	8	0	0
13.02	8	0	0
10.52	3.5	0	0
7.5199999999999996	3.5	0	0
10.52	6.5	0	0
7.5199999999999996	6.5	0	0
7.5199999999999996	4	0	0
10.52	4	0	0
7.5199999999999996	6	0	0
10.52	6	0	0
5.0199999999999996	8.5910000000000011	0	0
7.5199999999999996	8.5910000000000011	0	0
10.52	8.5910000000000011	0	0
13.02	8.5910000000000011	0	0
5.0199999999999996	10.591000000000001	0	0
7.5199999999999996	10.591000000000001	0	0
10.52	10.591000000000001	0	0
13.02	10.591000000000001	0	0
0.95999999999999996	6.96	0	0
16.98	6.96	0	0
10.01	3.5	0	0
10.109999999999999	3.8100000000000001	0	0
[NumSegments] = 27
4	0	-1	0	0	0
0	12	-1	0	0	0
12	13	-1	0	0	0
5	2	-1	0	0	0
2	14	-1	0	0	0
14	15	-1	0	0	0
15	3	-1	0	0	0
6	3	-1	0	0	0
6	7	-1	0	0	0
4	5	-1	0	0	0
9	26	-1	0	0	0
11	10	-1	0	0	0
11	14	-1	0	0	0
10	15	-1	0	0	0
12	9	-1	0	0	0
13	8	-1	0	0	0
13	1	-1	0	0	0
7	1	-1	0	0	0
16	17	-1	0	0	0
17	18	-1	0	0	0
18	19	-1	0	0	0
20	21	-1	0	0	0
21	22	-1	0	0	0
22	23	-1	0	0	0
16	20	-1	0	0	0
23	19	-1	0	0	0
26	8	-1	0	0	0
[NumArcSegments] = 2
24	25	180	1	1	0	0	1
25	24	180	1	1	0	0	1
[NumHoles] = 0
[NumBlockLabels] = 5
9.4700000000000006	6.3099999999999996	2	-1	1	0	0	30	0
9.4800000000000004	3.6800000000000002	2	-1	1	0	0	-30	0
9.1799999999999997	7.04	1	-1	0	0	0	1	0
9.6999999999999993	9.8900000000000006	3	-1	0	0	0	1	0
10.59	4.96	3	-1	0	0	0	1	0
